examples/transmission/output/syn_synthesis/synthetic_500.xiidm
<?xml version="1.0" encoding="UTF-8"?>
<iidm:network xmlns:iidm="http://www.powsybl.org/schema/iidm/1_15" xmlns:apc="http://www.powsybl.org/schema/iidm/ext/active_power_control/1_2" xmlns:slt="http://www.powsybl.org/schema/iidm/ext/slack_terminal/1_5" id="network" caseDate="2026-04-17T14:10:30.409Z" forecastDistance="0" sourceFormat="" minimumValidationLevel="STEADY_STATE_HYPOTHESIS">
    <iidm:substation id="s">
        <iidm:voltageLevel id="sub_0" nominalV="380.0" lowVoltageLimit="361.0" highVoltageLimit="399.0" topologyKind="BUS_BREAKER">
            <iidm:busBreakerTopology>
                <iidm:bus id="bus_0" name="Bus_0"/>
            </iidm:busBreakerTopology>
            <iidm:load id="load_0_0" name="Load_0" loadType="UNDEFINED" p0="223.71272361900986" q0="0.0" bus="bus_0" connectableBus="bus_0"/>
        </iidm:voltageLevel>
        <iidm:voltageLevel id="sub_1" nominalV="380.0" lowVoltageLimit="361.0" highVoltageLimit="399.0" topologyKind="BUS_BREAKER">
            <iidm:busBreakerTopology>
                <iidm:bus id="bus_1" name="Bus_1"/>
            </iidm:busBreakerTopology>
            <iidm:load id="load_1_1" name="Load_1" loadType="UNDEFINED" p0="64.23284149324245" q0="0.0" bus="bus_1" connectableBus="bus_1"/>
        </iidm:voltageLevel>
        <iidm:voltageLevel id="sub_2" nominalV="380.0" lowVoltageLimit="361.0" highVoltageLimit="399.0" topologyKind="BUS_BREAKER">
            <iidm:busBreakerTopology>
                <iidm:bus id="bus_2" name="Bus_2"/>
            </iidm:busBreakerTopology>
            <iidm:load id="load_2_2" name="Load_2" loadType="UNDEFINED" p0="345.4994450860525" q0="0.0" bus="bus_2" connectableBus="bus_2"/>
        </iidm:voltageLevel>
        <iidm:voltageLevel id="sub_3" nominalV="380.0" lowVoltageLimit="361.0" highVoltageLimit="399.0" topologyKind="BUS_BREAKER">
            <iidm:busBreakerTopology>
                <iidm:bus id="bus_3" name="Bus_3"/>
            </iidm:busBreakerTopology>
        </iidm:voltageLevel>
        <iidm:voltageLevel id="sub_4" nominalV="380.0" lowVoltageLimit="361.0" highVoltageLimit="399.0" topologyKind="BUS_BREAKER">
            <iidm:busBreakerTopology>
                <iidm:bus id="bus_4" name="Bus_4"/>
            </iidm:busBreakerTopology>
            <iidm:load id="load_4_3" name="Load_4" loadType="UNDEFINED" p0="131.68105800273017" q0="0.0" bus="bus_4" connectableBus="bus_4"/>
        </iidm:voltageLevel>
        <iidm:voltageLevel id="sub_5" nominalV="380.0" lowVoltageLimit="361.0" highVoltageLimit="399.0" topologyKind="BUS_BREAKER">
            <iidm:busBreakerTopology>
                <iidm:bus id="bus_5" name="Bus_5"/>
            </iidm:busBreakerTopology>
            <iidm:load id="load_5_4" name="Load_5" loadType="UNDEFINED" p0="53.65603222423369" q0="0.0" bus="bus_5" connectableBus="bus_5"/>
        </iidm:voltageLevel>
        <iidm:voltageLevel id="sub_6" nominalV="380.0" lowVoltageLimit="361.0" highVoltageLimit="399.0" topologyKind="BUS_BREAKER">
            <iidm:busBreakerTopology>
                <iidm:bus id="bus_6" name="Bus_6"/>
            </iidm:busBreakerTopology>
            <iidm:load id="load_6_5" name="Load_6" loadType="UNDEFINED" p0="101.1687475412753" q0="0.0" bus="bus_6" connectableBus="bus_6"/>
        </iidm:voltageLevel>
        <iidm:voltageLevel id="sub_7" nominalV="380.0" lowVoltageLimit="361.0" highVoltageLimit="399.0" topologyKind="BUS_BREAKER">
            <iidm:busBreakerTopology>
                <iidm:bus id="bus_7" name="Bus_7"/>
            </iidm:busBreakerTopology>
        </iidm:voltageLevel>
        <iidm:voltageLevel id="sub_8" nominalV="380.0" lowVoltageLimit="361.0" highVoltageLimit="399.0" topologyKind="BUS_BREAKER">
            <iidm:busBreakerTopology>
                <iidm:bus id="bus_8" name="Bus_8"/>
            </iidm:busBreakerTopology>
            <iidm:generator id="gen_8_0" name="Gen_8" energySource="OTHER" minP="-4999.0" maxP="4999.0" voltageRegulatorOn="true" targetP="322.16049808689746" targetV="380.0" targetQ="0.0" bus="bus_8" connectableBus="bus_8">
                <iidm:minMaxReactiveLimits minQ="-52.44130009814553" maxQ="100.92565973884892"/>
            </iidm:generator>
        </iidm:voltageLevel>
        <iidm:voltageLevel id="sub_9" nominalV="380.0" lowVoltageLimit="361.0" highVoltageLimit="399.0" topologyKind="BUS_BREAKER">
            <iidm:busBreakerTopology>
                <iidm:bus id="bus_9" name="Bus_9"/>
            </iidm:busBreakerTopology>
            <iidm:load id="load_9_6" name="Load_9" loadType="UNDEFINED" p0="167.41261055847963" q0="0.0" bus="bus_9" connectableBus="bus_9"/>
        </iidm:voltageLevel>
        <iidm:voltageLevel id="sub_10" nominalV="380.0" lowVoltageLimit="361.0" highVoltageLimit="399.0" topologyKind="BUS_BREAKER">
            <iidm:busBreakerTopology>
                <iidm:bus id="bus_10" name="Bus_10"/>
            </iidm:busBreakerTopology>
        </iidm:voltageLevel>
        <iidm:voltageLevel id="sub_11" nominalV="380.0" lowVoltageLimit="361.0" highVoltageLimit="399.0" topologyKind="BUS_BREAKER">
            <iidm:busBreakerTopology>
                <iidm:bus id="bus_11" name="Bus_11"/>
            </iidm:busBreakerTopology>
        </iidm:voltageLevel>
        <iidm:voltageLevel id="sub_12" nominalV="380.0" lowVoltageLimit="361.0" highVoltageLimit="399.0" topologyKind="BUS_BREAKER">
            <iidm:busBreakerTopology>
                <iidm:bus id="bus_12" name="Bus_12"/>
            </iidm:busBreakerTopology>
            <iidm:generator id="gen_12_1" name="Gen_12" energySource="OTHER" minP="-4999.0" maxP="4999.0" voltageRegulatorOn="true" targetP="298.2167401736538" targetV="380.0" targetQ="0.0" bus="bus_12" connectableBus="bus_12">
                <iidm:minMaxReactiveLimits minQ="-11.21678898980135" maxQ="190.35137207792684"/>
            </iidm:generator>
        </iidm:voltageLevel>
        <iidm:voltageLevel id="sub_13" nominalV="380.0" lowVoltageLimit="361.0" highVoltageLimit="399.0" topologyKind="BUS_BREAKER">
            <iidm:busBreakerTopology>
                <iidm:bus id="bus_13" name="Bus_13"/>
            </iidm:busBreakerTopology>
            <iidm:load id="load_13_7" name="Load_13" loadType="UNDEFINED" p0="380.108783032331" q0="0.0" bus="bus_13" connectableBus="bus_13"/>
        </iidm:voltageLevel>
        <iidm:voltageLevel id="sub_14" nominalV="380.0" lowVoltageLimit="361.0" highVoltageLimit="399.0" topologyKind="BUS_BREAKER">
            <iidm:busBreakerTopology>
                <iidm:bus id="bus_14" name="Bus_14"/>
            </iidm:busBreakerTopology>
        </iidm:voltageLevel>
        <iidm:voltageLevel id="sub_15" nominalV="380.0" lowVoltageLimit="361.0" highVoltageLimit="399.0" topologyKind="BUS_BREAKER">
            <iidm:busBreakerTopology>
                <iidm:bus id="bus_15" name="Bus_15"/>
            </iidm:busBreakerTopology>
            <iidm:load id="load_15_8" name="Load_15" loadType="UNDEFINED" p0="25.566126811796604" q0="0.0" bus="bus_15" connectableBus="bus_15"/>
        </iidm:voltageLevel>
        <iidm:voltageLevel id="sub_16" nominalV="380.0" lowVoltageLimit="361.0" highVoltageLimit="399.0" topologyKind="BUS_BREAKER">
            <iidm:busBreakerTopology>
                <iidm:bus id="bus_16" name="Bus_16"/>
            </iidm:busBreakerTopology>
            <iidm:load id="load_16_9" name="Load_16" loadType="UNDEFINED" p0="76.57761241374108" q0="0.0" bus="bus_16" connectableBus="bus_16"/>
        </iidm:voltageLevel>
        <iidm:voltageLevel id="sub_17" nominalV="380.0" lowVoltageLimit="361.0" highVoltageLimit="399.0" topologyKind="BUS_BREAKER">
            <iidm:busBreakerTopology>
                <iidm:bus id="bus_17" name="Bus_17"/>
            </iidm:busBreakerTopology>
        </iidm:voltageLevel>
        <iidm:voltageLevel id="sub_18" nominalV="380.0" lowVoltageLimit="361.0" highVoltageLimit="399.0" topologyKind="BUS_BREAKER">
            <iidm:busBreakerTopology>
                <iidm:bus id="bus_18" name="Bus_18"/>
            </iidm:busBreakerTopology>
        </iidm:voltageLevel>
        <iidm:voltageLevel id="sub_19" nominalV="380.0" lowVoltageLimit="361.0" highVoltageLimit="399.0" topologyKind="BUS_BREAKER">
            <iidm:busBreakerTopology>
                <iidm:bus id="bus_19" name="Bus_19"/>
            </iidm:busBreakerTopology>
            <iidm:generator id="gen_19_2" name="Gen_19" energySource="OTHER" minP="-4999.0" maxP="4999.0" voltageRegulatorOn="true" targetP="211.0483403747171" targetV="380.0" targetQ="0.0" bus="bus_19" connectableBus="bus_19">
                <iidm:minMaxReactiveLimits minQ="-60.49231344394422" maxQ="140.219075328686"/>
            </iidm:generator>
        </iidm:voltageLevel>
        <iidm:voltageLevel id="sub_20" nominalV="380.0" lowVoltageLimit="361.0" highVoltageLimit="399.0" topologyKind="BUS_BREAKER">
            <iidm:busBreakerTopology>
                <iidm:bus id="bus_20" name="Bus_20"/>
            </iidm:busBreakerTopology>
        </iidm:voltageLevel>
        <iidm:voltageLevel id="sub_21" nominalV="380.0" lowVoltageLimit="361.0" highVoltageLimit="399.0" topologyKind="BUS_BREAKER">
            <iidm:busBreakerTopology>
                <iidm:bus id="bus_21" name="Bus_21"/>
            </iidm:busBreakerTopology>
        </iidm:voltageLevel>
        <iidm:voltageLevel id="sub_22" nominalV="380.0" lowVoltageLimit="361.0" highVoltageLimit="399.0" topologyKind="BUS_BREAKER">
            <iidm:busBreakerTopology>
                <iidm:bus id="bus_22" name="Bus_22"/>
            </iidm:busBreakerTopology>
            <iidm:generator id="gen_22_3" name="Gen_22" energySource="OTHER" minP="-4999.0" maxP="4999.0" voltageRegulatorOn="true" targetP="462.65524001290515" targetV="380.0" targetQ="0.0" bus="bus_22" connectableBus="bus_22">
                <iidm:minMaxReactiveLimits minQ="-48.8162490277738" maxQ="238.60776091097472"/>
            </iidm:generator>
        </iidm:voltageLevel>
        <iidm:voltageLevel id="sub_23" nominalV="380.0" lowVoltageLimit="361.0" highVoltageLimit="399.0" topologyKind="BUS_BREAKER">
            <iidm:busBreakerTopology>
                <iidm:bus id="bus_23" name="Bus_23"/>
            </iidm:busBreakerTopology>
            <iidm:generator id="gen_23_4" name="Gen_23" energySource="OTHER" minP="-4999.0" maxP="4999.0" voltageRegulatorOn="true" targetP="1165.384517963093" targetV="380.0" targetQ="0.0" bus="bus_23" connectableBus="bus_23">
                <iidm:minMaxReactiveLimits minQ="-66.6687682874656" maxQ="442.35463684731076"/>
            </iidm:generator>
        </iidm:voltageLevel>
        <iidm:voltageLevel id="sub_24" nominalV="380.0" lowVoltageLimit="361.0" highVoltageLimit="399.0" topologyKind="BUS_BREAKER">
            <iidm:busBreakerTopology>
                <iidm:bus id="bus_24" name="Bus_24"/>
            </iidm:busBreakerTopology>
            <iidm:load id="load_24_10" name="Load_24" loadType="UNDEFINED" p0="21.958075476497108" q0="0.0" bus="bus_24" connectableBus="bus_24"/>
        </iidm:voltageLevel>
        <iidm:voltageLevel id="sub_25" nominalV="380.0" lowVoltageLimit="361.0" highVoltageLimit="399.0" topologyKind="BUS_BREAKER">
            <iidm:busBreakerTopology>
                <iidm:bus id="bus_25" name="Bus_25"/>
            </iidm:busBreakerTopology>
            <iidm:load id="load_25_11" name="Load_25" loadType="UNDEFINED" p0="162.9427388757085" q0="0.0" bus="bus_25" connectableBus="bus_25"/>
        </iidm:voltageLevel>
        <iidm:voltageLevel id="sub_26" nominalV="380.0" lowVoltageLimit="361.0" highVoltageLimit="399.0" topologyKind="BUS_BREAKER">
            <iidm:busBreakerTopology>
                <iidm:bus id="bus_26" name="Bus_26"/>
            </iidm:busBreakerTopology>
        </iidm:voltageLevel>
        <iidm:voltageLevel id="sub_27" nominalV="380.0" lowVoltageLimit="361.0" highVoltageLimit="399.0" topologyKind="BUS_BREAKER">
            <iidm:busBreakerTopology>
                <iidm:bus id="bus_27" name="Bus_27"/>
            </iidm:busBreakerTopology>
            <iidm:generator id="gen_27_5" name="Gen_27" energySource="OTHER" minP="-4999.0" maxP="4999.0" voltageRegulatorOn="true" targetP="408.77759406416544" targetV="380.0" targetQ="0.0" bus="bus_27" connectableBus="bus_27">
                <iidm:minMaxReactiveLimits minQ="-27.497468510576343" maxQ="245.31283099042773"/>
            </iidm:generator>
        </iidm:voltageLevel>
        <iidm:voltageLevel id="sub_28" nominalV="380.0" lowVoltageLimit="361.0" highVoltageLimit="399.0" topologyKind="BUS_BREAKER">
            <iidm:busBreakerTopology>
                <iidm:bus id="bus_28" name="Bus_28"/>
            </iidm:busBreakerTopology>
            <iidm:load id="load_28_12" name="Load_28" loadType="UNDEFINED" p0="56.369813432613526" q0="0.0" bus="bus_28" connectableBus="bus_28"/>
        </iidm:voltageLevel>
        <iidm:voltageLevel id="sub_29" nominalV="380.0" lowVoltageLimit="361.0" highVoltageLimit="399.0" topologyKind="BUS_BREAKER">
            <iidm:busBreakerTopology>
                <iidm:bus id="bus_29" name="Bus_29"/>
            </iidm:busBreakerTopology>
            <iidm:load id="load_29_13" name="Load_29" loadType="UNDEFINED" p0="95.14617988380874" q0="0.0" bus="bus_29" connectableBus="bus_29"/>
        </iidm:voltageLevel>
        <iidm:voltageLevel id="sub_30" nominalV="380.0" lowVoltageLimit="361.0" highVoltageLimit="399.0" topologyKind="BUS_BREAKER">
            <iidm:busBreakerTopology>
                <iidm:bus id="bus_30" name="Bus_30"/>
            </iidm:busBreakerTopology>
        </iidm:voltageLevel>
        <iidm:voltageLevel id="sub_31" nominalV="380.0" lowVoltageLimit="361.0" highVoltageLimit="399.0" topologyKind="BUS_BREAKER">
            <iidm:busBreakerTopology>
                <iidm:bus id="bus_31" name="Bus_31"/>
            </iidm:busBreakerTopology>
            <iidm:load id="load_31_14" name="Load_31" loadType="UNDEFINED" p0="37.987245473682975" q0="0.0" bus="bus_31" connectableBus="bus_31"/>
        </iidm:voltageLevel>
        <iidm:voltageLevel id="sub_32" nominalV="380.0" lowVoltageLimit="361.0" highVoltageLimit="399.0" topologyKind="BUS_BREAKER">
            <iidm:busBreakerTopology>
                <iidm:bus id="bus_32" name="Bus_32"/>
            </iidm:busBreakerTopology>
        </iidm:voltageLevel>
        <iidm:voltageLevel id="sub_33" nominalV="380.0" lowVoltageLimit="361.0" highVoltageLimit="399.0" topologyKind="BUS_BREAKER">
            <iidm:busBreakerTopology>
                <iidm:bus id="bus_33" name="Bus_33"/>
            </iidm:busBreakerTopology>
            <iidm:load id="load_33_15" name="Load_33" loadType="UNDEFINED" p0="117.94360371494241" q0="0.0" bus="bus_33" connectableBus="bus_33"/>
        </iidm:voltageLevel>
        <iidm:voltageLevel id="sub_34" nominalV="380.0" lowVoltageLimit="361.0" highVoltageLimit="399.0" topologyKind="BUS_BREAKER">
            <iidm:busBreakerTopology>
                <iidm:bus id="bus_34" name="Bus_34"/>
            </iidm:busBreakerTopology>
            <iidm:load id="load_34_16" name="Load_34" loadType="UNDEFINED" p0="18.481778677159443" q0="0.0" bus="bus_34" connectableBus="bus_34"/>
        </iidm:voltageLevel>
        <iidm:voltageLevel id="sub_35" nominalV="380.0" lowVoltageLimit="361.0" highVoltageLimit="399.0" topologyKind="BUS_BREAKER">
            <iidm:busBreakerTopology>
                <iidm:bus id="bus_35" name="Bus_35"/>
            </iidm:busBreakerTopology>
            <iidm:load id="load_35_17" name="Load_35" loadType="UNDEFINED" p0="103.6679553102823" q0="0.0" bus="bus_35" connectableBus="bus_35"/>
        </iidm:voltageLevel>
        <iidm:voltageLevel id="sub_36" nominalV="380.0" lowVoltageLimit="361.0" highVoltageLimit="399.0" topologyKind="BUS_BREAKER">
            <iidm:busBreakerTopology>
                <iidm:bus id="bus_36" name="Bus_36"/>
            </iidm:busBreakerTopology>
            <iidm:load id="load_36_18" name="Load_36" loadType="UNDEFINED" p0="195.4666236087335" q0="0.0" bus="bus_36" connectableBus="bus_36"/>
        </iidm:voltageLevel>
        <iidm:voltageLevel id="sub_37" nominalV="380.0" lowVoltageLimit="361.0" highVoltageLimit="399.0" topologyKind="BUS_BREAKER">
            <iidm:busBreakerTopology>
                <iidm:bus id="bus_37" name="Bus_37"/>
            </iidm:busBreakerTopology>
        </iidm:voltageLevel>
        <iidm:voltageLevel id="sub_38" nominalV="380.0" lowVoltageLimit="361.0" highVoltageLimit="399.0" topologyKind="BUS_BREAKER">
            <iidm:busBreakerTopology>
                <iidm:bus id="bus_38" name="Bus_38"/>
            </iidm:busBreakerTopology>
            <iidm:load id="load_38_19" name="Load_38" loadType="UNDEFINED" p0="91.89964201064863" q0="0.0" bus="bus_38" connectableBus="bus_38"/>
        </iidm:voltageLevel>
        <iidm:voltageLevel id="sub_39" nominalV="380.0" lowVoltageLimit="361.0" highVoltageLimit="399.0" topologyKind="BUS_BREAKER">
            <iidm:busBreakerTopology>
                <iidm:bus id="bus_39" name="Bus_39"/>
            </iidm:busBreakerTopology>
            <iidm:load id="load_39_20" name="Load_39" loadType="UNDEFINED" p0="69.5255909536846" q0="0.0" bus="bus_39" connectableBus="bus_39"/>
        </iidm:voltageLevel>
        <iidm:voltageLevel id="sub_40" nominalV="380.0" lowVoltageLimit="361.0" highVoltageLimit="399.0" topologyKind="BUS_BREAKER">
            <iidm:busBreakerTopology>
                <iidm:bus id="bus_40" name="Bus_40"/>
            </iidm:busBreakerTopology>
            <iidm:load id="load_40_21" name="Load_40" loadType="UNDEFINED" p0="12.752107291472536" q0="0.0" bus="bus_40" connectableBus="bus_40"/>
        </iidm:voltageLevel>
        <iidm:voltageLevel id="sub_41" nominalV="380.0" lowVoltageLimit="361.0" highVoltageLimit="399.0" topologyKind="BUS_BREAKER">
            <iidm:busBreakerTopology>
                <iidm:bus id="bus_41" name="Bus_41"/>
            </iidm:busBreakerTopology>
            <iidm:load id="load_41_22" name="Load_41" loadType="UNDEFINED" p0="97.6147703944723" q0="0.0" bus="bus_41" connectableBus="bus_41"/>
        </iidm:voltageLevel>
        <iidm:voltageLevel id="sub_42" nominalV="380.0" lowVoltageLimit="361.0" highVoltageLimit="399.0" topologyKind="BUS_BREAKER">
            <iidm:busBreakerTopology>
                <iidm:bus id="bus_42" name="Bus_42"/>
            </iidm:busBreakerTopology>
        </iidm:voltageLevel>
        <iidm:voltageLevel id="sub_43" nominalV="380.0" lowVoltageLimit="361.0" highVoltageLimit="399.0" topologyKind="BUS_BREAKER">
            <iidm:busBreakerTopology>
                <iidm:bus id="bus_43" name="Bus_43"/>
            </iidm:busBreakerTopology>
            <iidm:load id="load_43_23" name="Load_43" loadType="UNDEFINED" p0="117.73555812408902" q0="0.0" bus="bus_43" connectableBus="bus_43"/>
        </iidm:voltageLevel>
        <iidm:voltageLevel id="sub_44" nominalV="380.0" lowVoltageLimit="361.0" highVoltageLimit="399.0" topologyKind="BUS_BREAKER">
            <iidm:busBreakerTopology>
                <iidm:bus id="bus_44" name="Bus_44"/>
            </iidm:busBreakerTopology>
            <iidm:load id="load_44_24" name="Load_44" loadType="UNDEFINED" p0="65.58934874075366" q0="0.0" bus="bus_44" connectableBus="bus_44"/>
        </iidm:voltageLevel>
        <iidm:voltageLevel id="sub_45" nominalV="380.0" lowVoltageLimit="361.0" highVoltageLimit="399.0" topologyKind="BUS_BREAKER">
            <iidm:busBreakerTopology>
                <iidm:bus id="bus_45" name="Bus_45"/>
            </iidm:busBreakerTopology>
            <iidm:load id="load_45_25" name="Load_45" loadType="UNDEFINED" p0="88.49839208458121" q0="0.0" bus="bus_45" connectableBus="bus_45"/>
        </iidm:voltageLevel>
        <iidm:voltageLevel id="sub_46" nominalV="380.0" lowVoltageLimit="361.0" highVoltageLimit="399.0" topologyKind="BUS_BREAKER">
            <iidm:busBreakerTopology>
                <iidm:bus id="bus_46" name="Bus_46"/>
            </iidm:busBreakerTopology>
            <iidm:load id="load_46_26" name="Load_46" loadType="UNDEFINED" p0="64.09913595035636" q0="0.0" bus="bus_46" connectableBus="bus_46"/>
        </iidm:voltageLevel>
        <iidm:voltageLevel id="sub_47" nominalV="380.0" lowVoltageLimit="361.0" highVoltageLimit="399.0" topologyKind="BUS_BREAKER">
            <iidm:busBreakerTopology>
                <iidm:bus id="bus_47" name="Bus_47"/>
            </iidm:busBreakerTopology>
            <iidm:load id="load_47_27" name="Load_47" loadType="UNDEFINED" p0="2.7452878019769655" q0="0.0" bus="bus_47" connectableBus="bus_47"/>
        </iidm:voltageLevel>
        <iidm:voltageLevel id="sub_48" nominalV="110.0" lowVoltageLimit="104.5" highVoltageLimit="115.5" topologyKind="BUS_BREAKER">
            <iidm:busBreakerTopology>
                <iidm:bus id="bus_48" name="Bus_48"/>
            </iidm:busBreakerTopology>
            <iidm:generator id="gen_48_6" name="Gen_48" energySource="OTHER" minP="-4999.0" maxP="4999.0" voltageRegulatorOn="true" targetP="16.19778021074207" targetV="110.0" targetQ="0.0" bus="bus_48" connectableBus="bus_48">
                <iidm:minMaxReactiveLimits minQ="-6.828310008238947" maxQ="27.476672440388622"/>
            </iidm:generator>
        </iidm:voltageLevel>
        <iidm:voltageLevel id="sub_49" nominalV="110.0" lowVoltageLimit="104.5" highVoltageLimit="115.5" topologyKind="BUS_BREAKER">
            <iidm:busBreakerTopology>
                <iidm:bus id="bus_49" name="Bus_49"/>
            </iidm:busBreakerTopology>
        </iidm:voltageLevel>
        <iidm:voltageLevel id="sub_50" nominalV="110.0" lowVoltageLimit="104.5" highVoltageLimit="115.5" topologyKind="BUS_BREAKER">
            <iidm:busBreakerTopology>
                <iidm:bus id="bus_50" name="Bus_50"/>
            </iidm:busBreakerTopology>
        </iidm:voltageLevel>
        <iidm:voltageLevel id="sub_51" nominalV="110.0" lowVoltageLimit="104.5" highVoltageLimit="115.5" topologyKind="BUS_BREAKER">
            <iidm:busBreakerTopology>
                <iidm:bus id="bus_51" name="Bus_51"/>
            </iidm:busBreakerTopology>
        </iidm:voltageLevel>
        <iidm:voltageLevel id="sub_52" nominalV="110.0" lowVoltageLimit="104.5" highVoltageLimit="115.5" topologyKind="BUS_BREAKER">
            <iidm:busBreakerTopology>
                <iidm:bus id="bus_52" name="Bus_52"/>
            </iidm:busBreakerTopology>
            <iidm:load id="load_52_28" name="Load_52" loadType="UNDEFINED" p0="106.3623261175901" q0="0.0" bus="bus_52" connectableBus="bus_52"/>
        </iidm:voltageLevel>
        <iidm:voltageLevel id="sub_53" nominalV="110.0" lowVoltageLimit="104.5" highVoltageLimit="115.5" topologyKind="BUS_BREAKER">
            <iidm:busBreakerTopology>
                <iidm:bus id="bus_53" name="Bus_53"/>
            </iidm:busBreakerTopology>
            <iidm:load id="load_53_29" name="Load_53" loadType="UNDEFINED" p0="55.05261638434066" q0="0.0" bus="bus_53" connectableBus="bus_53"/>
        </iidm:voltageLevel>
        <iidm:voltageLevel id="sub_54" nominalV="110.0" lowVoltageLimit="104.5" highVoltageLimit="115.5" topologyKind="BUS_BREAKER">
            <iidm:busBreakerTopology>
                <iidm:bus id="bus_54" name="Bus_54"/>
            </iidm:busBreakerTopology>
            <iidm:load id="load_54_30" name="Load_54" loadType="UNDEFINED" p0="45.96469766058458" q0="0.0" bus="bus_54" connectableBus="bus_54"/>
        </iidm:voltageLevel>
        <iidm:voltageLevel id="sub_55" nominalV="110.0" lowVoltageLimit="104.5" highVoltageLimit="115.5" topologyKind="BUS_BREAKER">
            <iidm:busBreakerTopology>
                <iidm:bus id="bus_55" name="Bus_55"/>
            </iidm:busBreakerTopology>
            <iidm:load id="load_55_31" name="Load_55" loadType="UNDEFINED" p0="69.2855105286146" q0="0.0" bus="bus_55" connectableBus="bus_55"/>
        </iidm:voltageLevel>
        <iidm:voltageLevel id="sub_56" nominalV="110.0" lowVoltageLimit="104.5" highVoltageLimit="115.5" topologyKind="BUS_BREAKER">
            <iidm:busBreakerTopology>
                <iidm:bus id="bus_56" name="Bus_56"/>
            </iidm:busBreakerTopology>
            <iidm:load id="load_56_32" name="Load_56" loadType="UNDEFINED" p0="10.364744525827984" q0="0.0" bus="bus_56" connectableBus="bus_56"/>
        </iidm:voltageLevel>
        <iidm:voltageLevel id="sub_57" nominalV="110.0" lowVoltageLimit="104.5" highVoltageLimit="115.5" topologyKind="BUS_BREAKER">
            <iidm:busBreakerTopology>
                <iidm:bus id="bus_57" name="Bus_57"/>
            </iidm:busBreakerTopology>
        </iidm:voltageLevel>
        <iidm:voltageLevel id="sub_58" nominalV="110.0" lowVoltageLimit="104.5" highVoltageLimit="115.5" topologyKind="BUS_BREAKER">
            <iidm:busBreakerTopology>
                <iidm:bus id="bus_58" name="Bus_58"/>
            </iidm:busBreakerTopology>
            <iidm:generator id="gen_58_7" name="Gen_58" energySource="OTHER" minP="-4999.0" maxP="4999.0" voltageRegulatorOn="true" targetP="0.0" targetV="110.0" targetQ="0.0" bus="bus_58" connectableBus="bus_58">
                <iidm:minMaxReactiveLimits minQ="-41.23908615274694" maxQ="101.31236918089976"/>
            </iidm:generator>
        </iidm:voltageLevel>
        <iidm:voltageLevel id="sub_59" nominalV="110.0" lowVoltageLimit="104.5" highVoltageLimit="115.5" topologyKind="BUS_BREAKER">
            <iidm:busBreakerTopology>
                <iidm:bus id="bus_59" name="Bus_59"/>
            </iidm:busBreakerTopology>
            <iidm:load id="load_59_33" name="Load_59" loadType="UNDEFINED" p0="74.5452445566966" q0="0.0" bus="bus_59" connectableBus="bus_59"/>
        </iidm:voltageLevel>
        <iidm:voltageLevel id="sub_60" nominalV="110.0" lowVoltageLimit="104.5" highVoltageLimit="115.5" topologyKind="BUS_BREAKER">
            <iidm:busBreakerTopology>
                <iidm:bus id="bus_60" name="Bus_60"/>
            </iidm:busBreakerTopology>
            <iidm:load id="load_60_34" name="Load_60" loadType="UNDEFINED" p0="20.867796618168047" q0="0.0" bus="bus_60" connectableBus="bus_60"/>
        </iidm:voltageLevel>
        <iidm:voltageLevel id="sub_61" nominalV="110.0" lowVoltageLimit="104.5" highVoltageLimit="115.5" topologyKind="BUS_BREAKER">
            <iidm:busBreakerTopology>
                <iidm:bus id="bus_61" name="Bus_61"/>
            </iidm:busBreakerTopology>
            <iidm:generator id="gen_61_8" name="Gen_61" energySource="OTHER" minP="-4999.0" maxP="4999.0" voltageRegulatorOn="true" targetP="336.2699645801099" targetV="110.0" targetQ="0.0" bus="bus_61" connectableBus="bus_61">
                <iidm:minMaxReactiveLimits minQ="-94.51855435734475" maxQ="147.34929334285746"/>
            </iidm:generator>
        </iidm:voltageLevel>
        <iidm:voltageLevel id="sub_62" nominalV="110.0" lowVoltageLimit="104.5" highVoltageLimit="115.5" topologyKind="BUS_BREAKER">
            <iidm:busBreakerTopology>
                <iidm:bus id="bus_62" name="Bus_62"/>
            </iidm:busBreakerTopology>
            <iidm:load id="load_62_35" name="Load_62" loadType="UNDEFINED" p0="78.94455550411953" q0="0.0" bus="bus_62" connectableBus="bus_62"/>
        </iidm:voltageLevel>
        <iidm:voltageLevel id="sub_63" nominalV="110.0" lowVoltageLimit="104.5" highVoltageLimit="115.5" topologyKind="BUS_BREAKER">
            <iidm:busBreakerTopology>
                <iidm:bus id="bus_63" name="Bus_63"/>
            </iidm:busBreakerTopology>
            <iidm:load id="load_63_36" name="Load_63" loadType="UNDEFINED" p0="57.828714948718876" q0="0.0" bus="bus_63" connectableBus="bus_63"/>
        </iidm:voltageLevel>
        <iidm:voltageLevel id="sub_64" nominalV="110.0" lowVoltageLimit="104.5" highVoltageLimit="115.5" topologyKind="BUS_BREAKER">
            <iidm:busBreakerTopology>
                <iidm:bus id="bus_64" name="Bus_64"/>
            </iidm:busBreakerTopology>
            <iidm:load id="load_64_37" name="Load_64" loadType="UNDEFINED" p0="68.00468419458113" q0="0.0" bus="bus_64" connectableBus="bus_64"/>
        </iidm:voltageLevel>
        <iidm:voltageLevel id="sub_65" nominalV="110.0" lowVoltageLimit="104.5" highVoltageLimit="115.5" topologyKind="BUS_BREAKER">
            <iidm:busBreakerTopology>
                <iidm:bus id="bus_65" name="Bus_65"/>
            </iidm:busBreakerTopology>
            <iidm:load id="load_65_38" name="Load_65" loadType="UNDEFINED" p0="128.47237521671934" q0="0.0" bus="bus_65" connectableBus="bus_65"/>
        </iidm:voltageLevel>
        <iidm:voltageLevel id="sub_66" nominalV="110.0" lowVoltageLimit="104.5" highVoltageLimit="115.5" topologyKind="BUS_BREAKER">
            <iidm:busBreakerTopology>
                <iidm:bus id="bus_66" name="Bus_66"/>
            </iidm:busBreakerTopology>
            <iidm:load id="load_66_39" name="Load_66" loadType="UNDEFINED" p0="675.5822060728601" q0="0.0" bus="bus_66" connectableBus="bus_66"/>
        </iidm:voltageLevel>
        <iidm:voltageLevel id="sub_67" nominalV="110.0" lowVoltageLimit="104.5" highVoltageLimit="115.5" topologyKind="BUS_BREAKER">
            <iidm:busBreakerTopology>
                <iidm:bus id="bus_67" name="Bus_67"/>
            </iidm:busBreakerTopology>
        </iidm:voltageLevel>
        <iidm:voltageLevel id="sub_68" nominalV="110.0" lowVoltageLimit="104.5" highVoltageLimit="115.5" topologyKind="BUS_BREAKER">
            <iidm:busBreakerTopology>
                <iidm:bus id="bus_68" name="Bus_68"/>
            </iidm:busBreakerTopology>
            <iidm:load id="load_68_40" name="Load_68" loadType="UNDEFINED" p0="488.5406388972418" q0="0.0" bus="bus_68" connectableBus="bus_68"/>
        </iidm:voltageLevel>
        <iidm:voltageLevel id="sub_69" nominalV="110.0" lowVoltageLimit="104.5" highVoltageLimit="115.5" topologyKind="BUS_BREAKER">
            <iidm:busBreakerTopology>
                <iidm:bus id="bus_69" name="Bus_69"/>
            </iidm:busBreakerTopology>
            <iidm:load id="load_69_41" name="Load_69" loadType="UNDEFINED" p0="77.46062501863663" q0="0.0" bus="bus_69" connectableBus="bus_69"/>
        </iidm:voltageLevel>
        <iidm:voltageLevel id="sub_70" nominalV="110.0" lowVoltageLimit="104.5" highVoltageLimit="115.5" topologyKind="BUS_BREAKER">
            <iidm:busBreakerTopology>
                <iidm:bus id="bus_70" name="Bus_70"/>
            </iidm:busBreakerTopology>
            <iidm:generator id="gen_70_9" name="Gen_70" energySource="OTHER" minP="-4999.0" maxP="4999.0" voltageRegulatorOn="true" targetP="0.0" targetV="110.0" targetQ="0.0" bus="bus_70" connectableBus="bus_70">
                <iidm:minMaxReactiveLimits minQ="-29.656576792232006" maxQ="53.23600806931894"/>
            </iidm:generator>
        </iidm:voltageLevel>
        <iidm:voltageLevel id="sub_71" nominalV="110.0" lowVoltageLimit="104.5" highVoltageLimit="115.5" topologyKind="BUS_BREAKER">
            <iidm:busBreakerTopology>
                <iidm:bus id="bus_71" name="Bus_71"/>
            </iidm:busBreakerTopology>
            <iidm:load id="load_71_42" name="Load_71" loadType="UNDEFINED" p0="118.46979817638406" q0="0.0" bus="bus_71" connectableBus="bus_71"/>
        </iidm:voltageLevel>
        <iidm:voltageLevel id="sub_72" nominalV="110.0" lowVoltageLimit="104.5" highVoltageLimit="115.5" topologyKind="BUS_BREAKER">
            <iidm:busBreakerTopology>
                <iidm:bus id="bus_72" name="Bus_72"/>
            </iidm:busBreakerTopology>
        </iidm:voltageLevel>
        <iidm:voltageLevel id="sub_73" nominalV="110.0" lowVoltageLimit="104.5" highVoltageLimit="115.5" topologyKind="BUS_BREAKER">
            <iidm:busBreakerTopology>
                <iidm:bus id="bus_73" name="Bus_73"/>
            </iidm:busBreakerTopology>
            <iidm:load id="load_73_43" name="Load_73" loadType="UNDEFINED" p0="60.94859158172257" q0="0.0" bus="bus_73" connectableBus="bus_73"/>
        </iidm:voltageLevel>
        <iidm:voltageLevel id="sub_74" nominalV="110.0" lowVoltageLimit="104.5" highVoltageLimit="115.5" topologyKind="BUS_BREAKER">
            <iidm:busBreakerTopology>
                <iidm:bus id="bus_74" name="Bus_74"/>
            </iidm:busBreakerTopology>
        </iidm:voltageLevel>
        <iidm:voltageLevel id="sub_75" nominalV="110.0" lowVoltageLimit="104.5" highVoltageLimit="115.5" topologyKind="BUS_BREAKER">
            <iidm:busBreakerTopology>
                <iidm:bus id="bus_75" name="Bus_75"/>
            </iidm:busBreakerTopology>
            <iidm:load id="load_75_44" name="Load_75" loadType="UNDEFINED" p0="188.7548809503582" q0="0.0" bus="bus_75" connectableBus="bus_75"/>
        </iidm:voltageLevel>
        <iidm:voltageLevel id="sub_76" nominalV="110.0" lowVoltageLimit="104.5" highVoltageLimit="115.5" topologyKind="BUS_BREAKER">
            <iidm:busBreakerTopology>
                <iidm:bus id="bus_76" name="Bus_76"/>
            </iidm:busBreakerTopology>
            <iidm:load id="load_76_45" name="Load_76" loadType="UNDEFINED" p0="34.97736117233115" q0="0.0" bus="bus_76" connectableBus="bus_76"/>
        </iidm:voltageLevel>
        <iidm:voltageLevel id="sub_77" nominalV="110.0" lowVoltageLimit="104.5" highVoltageLimit="115.5" topologyKind="BUS_BREAKER">
            <iidm:busBreakerTopology>
                <iidm:bus id="bus_77" name="Bus_77"/>
            </iidm:busBreakerTopology>
            <iidm:generator id="gen_77_10" name="Gen_77" energySource="OTHER" minP="-4999.0" maxP="4999.0" voltageRegulatorOn="true" targetP="12.8428928079051" targetV="110.0" targetQ="0.0" bus="bus_77" connectableBus="bus_77">
                <iidm:minMaxReactiveLimits minQ="-8.295033882837705" maxQ="21.38146493214578"/>
            </iidm:generator>
        </iidm:voltageLevel>
        <iidm:voltageLevel id="sub_78" nominalV="110.0" lowVoltageLimit="104.5" highVoltageLimit="115.5" topologyKind="BUS_BREAKER">
            <iidm:busBreakerTopology>
                <iidm:bus id="bus_78" name="Bus_78"/>
            </iidm:busBreakerTopology>
            <iidm:load id="load_78_46" name="Load_78" loadType="UNDEFINED" p0="45.130060084674554" q0="0.0" bus="bus_78" connectableBus="bus_78"/>
        </iidm:voltageLevel>
        <iidm:voltageLevel id="sub_79" nominalV="110.0" lowVoltageLimit="104.5" highVoltageLimit="115.5" topologyKind="BUS_BREAKER">
            <iidm:busBreakerTopology>
                <iidm:bus id="bus_79" name="Bus_79"/>
            </iidm:busBreakerTopology>
            <iidm:generator id="gen_79_11" name="Gen_79" energySource="OTHER" minP="-4999.0" maxP="4999.0" voltageRegulatorOn="true" targetP="0.0" targetV="110.0" targetQ="0.0" bus="bus_79" connectableBus="bus_79">
                <iidm:minMaxReactiveLimits minQ="-148.32498044164365" maxQ="229.61918036427872"/>
            </iidm:generator>
        </iidm:voltageLevel>
        <iidm:voltageLevel id="sub_80" nominalV="110.0" lowVoltageLimit="104.5" highVoltageLimit="115.5" topologyKind="BUS_BREAKER">
            <iidm:busBreakerTopology>
                <iidm:bus id="bus_80" name="Bus_80"/>
            </iidm:busBreakerTopology>
            <iidm:load id="load_80_47" name="Load_80" loadType="UNDEFINED" p0="72.05137015859749" q0="0.0" bus="bus_80" connectableBus="bus_80"/>
        </iidm:voltageLevel>
        <iidm:voltageLevel id="sub_81" nominalV="110.0" lowVoltageLimit="104.5" highVoltageLimit="115.5" topologyKind="BUS_BREAKER">
            <iidm:busBreakerTopology>
                <iidm:bus id="bus_81" name="Bus_81"/>
            </iidm:busBreakerTopology>
            <iidm:generator id="gen_81_12" name="Gen_81" energySource="OTHER" minP="-4999.0" maxP="4999.0" voltageRegulatorOn="true" targetP="496.7945581180351" targetV="110.0" targetQ="0.0" bus="bus_81" connectableBus="bus_81">
                <iidm:minMaxReactiveLimits minQ="-84.23043369733546" maxQ="322.8993670101201"/>
            </iidm:generator>
        </iidm:voltageLevel>
        <iidm:voltageLevel id="sub_82" nominalV="110.0" lowVoltageLimit="104.5" highVoltageLimit="115.5" topologyKind="BUS_BREAKER">
            <iidm:busBreakerTopology>
                <iidm:bus id="bus_82" name="Bus_82"/>
            </iidm:busBreakerTopology>
        </iidm:voltageLevel>
        <iidm:voltageLevel id="sub_83" nominalV="110.0" lowVoltageLimit="104.5" highVoltageLimit="115.5" topologyKind="BUS_BREAKER">
            <iidm:busBreakerTopology>
                <iidm:bus id="bus_83" name="Bus_83"/>
            </iidm:busBreakerTopology>
            <iidm:generator id="gen_83_13" name="Gen_83" energySource="OTHER" minP="-4999.0" maxP="4999.0" voltageRegulatorOn="true" targetP="203.69515211754913" targetV="110.0" targetQ="0.0" bus="bus_83" connectableBus="bus_83">
                <iidm:minMaxReactiveLimits minQ="-34.09670371474458" maxQ="68.73272469462928"/>
            </iidm:generator>
        </iidm:voltageLevel>
        <iidm:voltageLevel id="sub_84" nominalV="110.0" lowVoltageLimit="104.5" highVoltageLimit="115.5" topologyKind="BUS_BREAKER">
            <iidm:busBreakerTopology>
                <iidm:bus id="bus_84" name="Bus_84"/>
            </iidm:busBreakerTopology>
            <iidm:generator id="gen_84_14" name="Gen_84" energySource="OTHER" minP="-4999.0" maxP="4999.0" voltageRegulatorOn="true" targetP="0.0" targetV="110.0" targetQ="0.0" bus="bus_84" connectableBus="bus_84">
                <iidm:minMaxReactiveLimits minQ="-89.03190472609693" maxQ="469.4228293572064"/>
            </iidm:generator>
        </iidm:voltageLevel>
        <iidm:voltageLevel id="sub_85" nominalV="110.0" lowVoltageLimit="104.5" highVoltageLimit="115.5" topologyKind="BUS_BREAKER">
            <iidm:busBreakerTopology>
                <iidm:bus id="bus_85" name="Bus_85"/>
            </iidm:busBreakerTopology>
        </iidm:voltageLevel>
        <iidm:voltageLevel id="sub_86" nominalV="110.0" lowVoltageLimit="104.5" highVoltageLimit="115.5" topologyKind="BUS_BREAKER">
            <iidm:busBreakerTopology>
                <iidm:bus id="bus_86" name="Bus_86"/>
            </iidm:busBreakerTopology>
            <iidm:load id="load_86_48" name="Load_86" loadType="UNDEFINED" p0="136.73296165214933" q0="0.0" bus="bus_86" connectableBus="bus_86"/>
        </iidm:voltageLevel>
        <iidm:voltageLevel id="sub_87" nominalV="110.0" lowVoltageLimit="104.5" highVoltageLimit="115.5" topologyKind="BUS_BREAKER">
            <iidm:busBreakerTopology>
                <iidm:bus id="bus_87" name="Bus_87"/>
            </iidm:busBreakerTopology>
            <iidm:generator id="gen_87_15" name="Gen_87" energySource="OTHER" minP="-4999.0" maxP="4999.0" voltageRegulatorOn="true" targetP="5.0469498098777485" targetV="110.0" targetQ="0.0" bus="bus_87" connectableBus="bus_87">
                <iidm:minMaxReactiveLimits minQ="-0.005875241273561742" maxQ="9.753476869725425"/>
            </iidm:generator>
        </iidm:voltageLevel>
        <iidm:voltageLevel id="sub_88" nominalV="110.0" lowVoltageLimit="104.5" highVoltageLimit="115.5" topologyKind="BUS_BREAKER">
            <iidm:busBreakerTopology>
                <iidm:bus id="bus_88" name="Bus_88"/>
            </iidm:busBreakerTopology>
            <iidm:load id="load_88_49" name="Load_88" loadType="UNDEFINED" p0="131.93619033740063" q0="0.0" bus="bus_88" connectableBus="bus_88"/>
        </iidm:voltageLevel>
        <iidm:voltageLevel id="sub_89" nominalV="110.0" lowVoltageLimit="104.5" highVoltageLimit="115.5" topologyKind="BUS_BREAKER">
            <iidm:busBreakerTopology>
                <iidm:bus id="bus_89" name="Bus_89"/>
            </iidm:busBreakerTopology>
            <iidm:generator id="gen_89_16" name="Gen_89" energySource="OTHER" minP="-4999.0" maxP="4999.0" voltageRegulatorOn="true" targetP="25.286627349536" targetV="110.0" targetQ="0.0" bus="bus_89" connectableBus="bus_89">
                <iidm:minMaxReactiveLimits minQ="-7.747118847734614" maxQ="19.913978875838733"/>
            </iidm:generator>
        </iidm:voltageLevel>
        <iidm:voltageLevel id="sub_90" nominalV="110.0" lowVoltageLimit="104.5" highVoltageLimit="115.5" topologyKind="BUS_BREAKER">
            <iidm:busBreakerTopology>
                <iidm:bus id="bus_90" name="Bus_90"/>
            </iidm:busBreakerTopology>
        </iidm:voltageLevel>
        <iidm:voltageLevel id="sub_91" nominalV="110.0" lowVoltageLimit="104.5" highVoltageLimit="115.5" topologyKind="BUS_BREAKER">
            <iidm:busBreakerTopology>
                <iidm:bus id="bus_91" name="Bus_91"/>
            </iidm:busBreakerTopology>
            <iidm:load id="load_91_50" name="Load_91" loadType="UNDEFINED" p0="60.024971912990516" q0="0.0" bus="bus_91" connectableBus="bus_91"/>
        </iidm:voltageLevel>
        <iidm:voltageLevel id="sub_92" nominalV="110.0" lowVoltageLimit="104.5" highVoltageLimit="115.5" topologyKind="BUS_BREAKER">
            <iidm:busBreakerTopology>
                <iidm:bus id="bus_92" name="Bus_92"/>
            </iidm:busBreakerTopology>
            <iidm:load id="load_92_51" name="Load_92" loadType="UNDEFINED" p0="59.199624926468275" q0="0.0" bus="bus_92" connectableBus="bus_92"/>
        </iidm:voltageLevel>
        <iidm:voltageLevel id="sub_93" nominalV="110.0" lowVoltageLimit="104.5" highVoltageLimit="115.5" topologyKind="BUS_BREAKER">
            <iidm:busBreakerTopology>
                <iidm:bus id="bus_93" name="Bus_93"/>
            </iidm:busBreakerTopology>
            <iidm:load id="load_93_52" name="Load_93" loadType="UNDEFINED" p0="289.5077647620897" q0="0.0" bus="bus_93" connectableBus="bus_93"/>
        </iidm:voltageLevel>
        <iidm:voltageLevel id="sub_94" nominalV="110.0" lowVoltageLimit="104.5" highVoltageLimit="115.5" topologyKind="BUS_BREAKER">
            <iidm:busBreakerTopology>
                <iidm:bus id="bus_94" name="Bus_94"/>
            </iidm:busBreakerTopology>
            <iidm:generator id="gen_94_17" name="Gen_94" energySource="OTHER" minP="-4999.0" maxP="4999.0" voltageRegulatorOn="true" targetP="21.89603739069538" targetV="110.0" targetQ="0.0" bus="bus_94" connectableBus="bus_94">
                <iidm:minMaxReactiveLimits minQ="-11.99218995114572" maxQ="38.833645141750544"/>
            </iidm:generator>
        </iidm:voltageLevel>
        <iidm:voltageLevel id="sub_95" nominalV="110.0" lowVoltageLimit="104.5" highVoltageLimit="115.5" topologyKind="BUS_BREAKER">
            <iidm:busBreakerTopology>
                <iidm:bus id="bus_95" name="Bus_95"/>
            </iidm:busBreakerTopology>
        </iidm:voltageLevel>
        <iidm:voltageLevel id="sub_96" nominalV="110.0" lowVoltageLimit="104.5" highVoltageLimit="115.5" topologyKind="BUS_BREAKER">
            <iidm:busBreakerTopology>
                <iidm:bus id="bus_96" name="Bus_96"/>
            </iidm:busBreakerTopology>
            <iidm:load id="load_96_53" name="Load_96" loadType="UNDEFINED" p0="49.910429939487095" q0="0.0" bus="bus_96" connectableBus="bus_96"/>
        </iidm:voltageLevel>
        <iidm:voltageLevel id="sub_97" nominalV="110.0" lowVoltageLimit="104.5" highVoltageLimit="115.5" topologyKind="BUS_BREAKER">
            <iidm:busBreakerTopology>
                <iidm:bus id="bus_97" name="Bus_97"/>
            </iidm:busBreakerTopology>
        </iidm:voltageLevel>
        <iidm:voltageLevel id="sub_98" nominalV="110.0" lowVoltageLimit="104.5" highVoltageLimit="115.5" topologyKind="BUS_BREAKER">
            <iidm:busBreakerTopology>
                <iidm:bus id="bus_98" name="Bus_98"/>
            </iidm:busBreakerTopology>
            <iidm:load id="load_98_54" name="Load_98" loadType="UNDEFINED" p0="80.69666500748127" q0="0.0" bus="bus_98" connectableBus="bus_98"/>
        </iidm:voltageLevel>
        <iidm:voltageLevel id="sub_99" nominalV="110.0" lowVoltageLimit="104.5" highVoltageLimit="115.5" topologyKind="BUS_BREAKER">
            <iidm:busBreakerTopology>
                <iidm:bus id="bus_99" name="Bus_99"/>
            </iidm:busBreakerTopology>
            <iidm:generator id="gen_99_0" name="Ext_Grid_99" energySource="OTHER" minP="-4999.0" maxP="4999.0" voltageRegulatorOn="true" targetP="1.0E-4" targetV="110.0" targetQ="0.0" bus="bus_99" connectableBus="bus_99">
                <iidm:minMaxReactiveLimits minQ="-590.4779181891704" maxQ="754.2122677246051"/>
            </iidm:generator>
        </iidm:voltageLevel>
        <iidm:voltageLevel id="sub_100" nominalV="110.0" lowVoltageLimit="104.5" highVoltageLimit="115.5" topologyKind="BUS_BREAKER">
            <iidm:busBreakerTopology>
                <iidm:bus id="bus_100" name="Bus_100"/>
            </iidm:busBreakerTopology>
            <iidm:load id="load_100_55" name="Load_100" loadType="UNDEFINED" p0="88.31194071783707" q0="0.0" bus="bus_100" connectableBus="bus_100"/>
        </iidm:voltageLevel>
        <iidm:voltageLevel id="sub_101" nominalV="110.0" lowVoltageLimit="104.5" highVoltageLimit="115.5" topologyKind="BUS_BREAKER">
            <iidm:busBreakerTopology>
                <iidm:bus id="bus_101" name="Bus_101"/>
            </iidm:busBreakerTopology>
            <iidm:load id="load_101_56" name="Load_101" loadType="UNDEFINED" p0="35.29832285933731" q0="0.0" bus="bus_101" connectableBus="bus_101"/>
        </iidm:voltageLevel>
        <iidm:voltageLevel id="sub_102" nominalV="110.0" lowVoltageLimit="104.5" highVoltageLimit="115.5" topologyKind="BUS_BREAKER">
            <iidm:busBreakerTopology>
                <iidm:bus id="bus_102" name="Bus_102"/>
            </iidm:busBreakerTopology>
            <iidm:load id="load_102_57" name="Load_102" loadType="UNDEFINED" p0="36.49097748579524" q0="0.0" bus="bus_102" connectableBus="bus_102"/>
        </iidm:voltageLevel>
        <iidm:voltageLevel id="sub_103" nominalV="110.0" lowVoltageLimit="104.5" highVoltageLimit="115.5" topologyKind="BUS_BREAKER">
            <iidm:busBreakerTopology>
                <iidm:bus id="bus_103" name="Bus_103"/>
            </iidm:busBreakerTopology>
            <iidm:load id="load_103_58" name="Load_103" loadType="UNDEFINED" p0="41.879441692577785" q0="0.0" bus="bus_103" connectableBus="bus_103"/>
        </iidm:voltageLevel>
        <iidm:voltageLevel id="sub_104" nominalV="110.0" lowVoltageLimit="104.5" highVoltageLimit="115.5" topologyKind="BUS_BREAKER">
            <iidm:busBreakerTopology>
                <iidm:bus id="bus_104" name="Bus_104"/>
            </iidm:busBreakerTopology>
            <iidm:load id="load_104_59" name="Load_104" loadType="UNDEFINED" p0="1993.011000952963" q0="0.0" bus="bus_104" connectableBus="bus_104"/>
        </iidm:voltageLevel>
        <iidm:voltageLevel id="sub_105" nominalV="110.0" lowVoltageLimit="104.5" highVoltageLimit="115.5" topologyKind="BUS_BREAKER">
            <iidm:busBreakerTopology>
                <iidm:bus id="bus_105" name="Bus_105"/>
            </iidm:busBreakerTopology>
            <iidm:generator id="gen_105_18" name="Gen_105" energySource="OTHER" minP="-4999.0" maxP="4999.0" voltageRegulatorOn="true" targetP="201.80293256050666" targetV="110.0" targetQ="0.0" bus="bus_105" connectableBus="bus_105">
                <iidm:minMaxReactiveLimits minQ="-23.81280740958754" maxQ="92.76397165199056"/>
            </iidm:generator>
        </iidm:voltageLevel>
        <iidm:voltageLevel id="sub_106" nominalV="110.0" lowVoltageLimit="104.5" highVoltageLimit="115.5" topologyKind="BUS_BREAKER">
            <iidm:busBreakerTopology>
                <iidm:bus id="bus_106" name="Bus_106"/>
            </iidm:busBreakerTopology>
            <iidm:generator id="gen_106_19" name="Gen_106" energySource="OTHER" minP="-4999.0" maxP="4999.0" voltageRegulatorOn="true" targetP="334.7116966625502" targetV="110.0" targetQ="0.0" bus="bus_106" connectableBus="bus_106">
                <iidm:minMaxReactiveLimits minQ="-5.838596369620327" maxQ="196.61629457137204"/>
            </iidm:generator>
        </iidm:voltageLevel>
        <iidm:voltageLevel id="sub_107" nominalV="110.0" lowVoltageLimit="104.5" highVoltageLimit="115.5" topologyKind="BUS_BREAKER">
            <iidm:busBreakerTopology>
                <iidm:bus id="bus_107" name="Bus_107"/>
            </iidm:busBreakerTopology>
            <iidm:generator id="gen_107_20" name="Gen_107" energySource="OTHER" minP="-4999.0" maxP="4999.0" voltageRegulatorOn="true" targetP="2.343042865423996" targetV="110.0" targetQ="0.0" bus="bus_107" connectableBus="bus_107">
                <iidm:minMaxReactiveLimits minQ="-9.144120569859508" maxQ="11.750665517285869"/>
            </iidm:generator>
        </iidm:voltageLevel>
        <iidm:voltageLevel id="sub_108" nominalV="110.0" lowVoltageLimit="104.5" highVoltageLimit="115.5" topologyKind="BUS_BREAKER">
            <iidm:busBreakerTopology>
                <iidm:bus id="bus_108" name="Bus_108"/>
            </iidm:busBreakerTopology>
            <iidm:load id="load_108_60" name="Load_108" loadType="UNDEFINED" p0="52.097705308799945" q0="0.0" bus="bus_108" connectableBus="bus_108"/>
        </iidm:voltageLevel>
        <iidm:voltageLevel id="sub_109" nominalV="110.0" lowVoltageLimit="104.5" highVoltageLimit="115.5" topologyKind="BUS_BREAKER">
            <iidm:busBreakerTopology>
                <iidm:bus id="bus_109" name="Bus_109"/>
            </iidm:busBreakerTopology>
        </iidm:voltageLevel>
        <iidm:voltageLevel id="sub_110" nominalV="110.0" lowVoltageLimit="104.5" highVoltageLimit="115.5" topologyKind="BUS_BREAKER">
            <iidm:busBreakerTopology>
                <iidm:bus id="bus_110" name="Bus_110"/>
            </iidm:busBreakerTopology>
            <iidm:load id="load_110_61" name="Load_110" loadType="UNDEFINED" p0="24.047510137266514" q0="0.0" bus="bus_110" connectableBus="bus_110"/>
        </iidm:voltageLevel>
        <iidm:voltageLevel id="sub_111" nominalV="110.0" lowVoltageLimit="104.5" highVoltageLimit="115.5" topologyKind="BUS_BREAKER">
            <iidm:busBreakerTopology>
                <iidm:bus id="bus_111" name="Bus_111"/>
            </iidm:busBreakerTopology>
            <iidm:load id="load_111_62" name="Load_111" loadType="UNDEFINED" p0="40.05108090908938" q0="0.0" bus="bus_111" connectableBus="bus_111"/>
        </iidm:voltageLevel>
        <iidm:voltageLevel id="sub_112" nominalV="110.0" lowVoltageLimit="104.5" highVoltageLimit="115.5" topologyKind="BUS_BREAKER">
            <iidm:busBreakerTopology>
                <iidm:bus id="bus_112" name="Bus_112"/>
            </iidm:busBreakerTopology>
            <iidm:load id="load_112_63" name="Load_112" loadType="UNDEFINED" p0="166.08281946629722" q0="0.0" bus="bus_112" connectableBus="bus_112"/>
        </iidm:voltageLevel>
        <iidm:voltageLevel id="sub_113" nominalV="110.0" lowVoltageLimit="104.5" highVoltageLimit="115.5" topologyKind="BUS_BREAKER">
            <iidm:busBreakerTopology>
                <iidm:bus id="bus_113" name="Bus_113"/>
            </iidm:busBreakerTopology>
            <iidm:generator id="gen_113_21" name="Gen_113" energySource="OTHER" minP="-4999.0" maxP="4999.0" voltageRegulatorOn="true" targetP="248.58099198581561" targetV="110.0" targetQ="0.0" bus="bus_113" connectableBus="bus_113">
                <iidm:minMaxReactiveLimits minQ="-58.14283304700851" maxQ="140.91971623909734"/>
            </iidm:generator>
        </iidm:voltageLevel>
        <iidm:voltageLevel id="sub_114" nominalV="110.0" lowVoltageLimit="104.5" highVoltageLimit="115.5" topologyKind="BUS_BREAKER">
            <iidm:busBreakerTopology>
                <iidm:bus id="bus_114" name="Bus_114"/>
            </iidm:busBreakerTopology>
            <iidm:generator id="gen_114_22" name="Gen_114" energySource="OTHER" minP="-4999.0" maxP="4999.0" voltageRegulatorOn="true" targetP="0.0" targetV="110.0" targetQ="0.0" bus="bus_114" connectableBus="bus_114">
                <iidm:minMaxReactiveLimits minQ="-2.546992327129635" maxQ="547.4771195889082"/>
            </iidm:generator>
        </iidm:voltageLevel>
        <iidm:voltageLevel id="sub_115" nominalV="110.0" lowVoltageLimit="104.5" highVoltageLimit="115.5" topologyKind="BUS_BREAKER">
            <iidm:busBreakerTopology>
                <iidm:bus id="bus_115" name="Bus_115"/>
            </iidm:busBreakerTopology>
        </iidm:voltageLevel>
        <iidm:voltageLevel id="sub_116" nominalV="110.0" lowVoltageLimit="104.5" highVoltageLimit="115.5" topologyKind="BUS_BREAKER">
            <iidm:busBreakerTopology>
                <iidm:bus id="bus_116" name="Bus_116"/>
            </iidm:busBreakerTopology>
            <iidm:load id="load_116_64" name="Load_116" loadType="UNDEFINED" p0="213.1074576448742" q0="0.0" bus="bus_116" connectableBus="bus_116"/>
        </iidm:voltageLevel>
        <iidm:voltageLevel id="sub_117" nominalV="110.0" lowVoltageLimit="104.5" highVoltageLimit="115.5" topologyKind="BUS_BREAKER">
            <iidm:busBreakerTopology>
                <iidm:bus id="bus_117" name="Bus_117"/>
            </iidm:busBreakerTopology>
        </iidm:voltageLevel>
        <iidm:voltageLevel id="sub_118" nominalV="110.0" lowVoltageLimit="104.5" highVoltageLimit="115.5" topologyKind="BUS_BREAKER">
            <iidm:busBreakerTopology>
                <iidm:bus id="bus_118" name="Bus_118"/>
            </iidm:busBreakerTopology>
            <iidm:load id="load_118_65" name="Load_118" loadType="UNDEFINED" p0="158.38812271534167" q0="0.0" bus="bus_118" connectableBus="bus_118"/>
        </iidm:voltageLevel>
        <iidm:voltageLevel id="sub_119" nominalV="110.0" lowVoltageLimit="104.5" highVoltageLimit="115.5" topologyKind="BUS_BREAKER">
            <iidm:busBreakerTopology>
                <iidm:bus id="bus_119" name="Bus_119"/>
            </iidm:busBreakerTopology>
            <iidm:generator id="gen_119_23" name="Gen_119" energySource="OTHER" minP="-4999.0" maxP="4999.0" voltageRegulatorOn="true" targetP="0.0" targetV="110.0" targetQ="0.0" bus="bus_119" connectableBus="bus_119">
                <iidm:minMaxReactiveLimits minQ="-80.70572814836163" maxQ="174.3609686252626"/>
            </iidm:generator>
        </iidm:voltageLevel>
        <iidm:voltageLevel id="sub_120" nominalV="110.0" lowVoltageLimit="104.5" highVoltageLimit="115.5" topologyKind="BUS_BREAKER">
            <iidm:busBreakerTopology>
                <iidm:bus id="bus_120" name="Bus_120"/>
            </iidm:busBreakerTopology>
            <iidm:load id="load_120_66" name="Load_120" loadType="UNDEFINED" p0="47.59016074776102" q0="0.0" bus="bus_120" connectableBus="bus_120"/>
        </iidm:voltageLevel>
        <iidm:voltageLevel id="sub_121" nominalV="110.0" lowVoltageLimit="104.5" highVoltageLimit="115.5" topologyKind="BUS_BREAKER">
            <iidm:busBreakerTopology>
                <iidm:bus id="bus_121" name="Bus_121"/>
            </iidm:busBreakerTopology>
            <iidm:load id="load_121_67" name="Load_121" loadType="UNDEFINED" p0="2538.657580091342" q0="0.0" bus="bus_121" connectableBus="bus_121"/>
        </iidm:voltageLevel>
        <iidm:voltageLevel id="sub_122" nominalV="110.0" lowVoltageLimit="104.5" highVoltageLimit="115.5" topologyKind="BUS_BREAKER">
            <iidm:busBreakerTopology>
                <iidm:bus id="bus_122" name="Bus_122"/>
            </iidm:busBreakerTopology>
            <iidm:generator id="gen_122_24" name="Gen_122" energySource="OTHER" minP="-4999.0" maxP="4999.0" voltageRegulatorOn="true" targetP="4.093689067110444" targetV="110.0" targetQ="0.0" bus="bus_122" connectableBus="bus_122">
                <iidm:minMaxReactiveLimits minQ="-2.5154078855043407" maxQ="3.025090306674959"/>
            </iidm:generator>
        </iidm:voltageLevel>
        <iidm:voltageLevel id="sub_123" nominalV="110.0" lowVoltageLimit="104.5" highVoltageLimit="115.5" topologyKind="BUS_BREAKER">
            <iidm:busBreakerTopology>
                <iidm:bus id="bus_123" name="Bus_123"/>
            </iidm:busBreakerTopology>
            <iidm:load id="load_123_68" name="Load_123" loadType="UNDEFINED" p0="39.06793130541125" q0="0.0" bus="bus_123" connectableBus="bus_123"/>
        </iidm:voltageLevel>
        <iidm:voltageLevel id="sub_124" nominalV="110.0" lowVoltageLimit="104.5" highVoltageLimit="115.5" topologyKind="BUS_BREAKER">
            <iidm:busBreakerTopology>
                <iidm:bus id="bus_124" name="Bus_124"/>
            </iidm:busBreakerTopology>
            <iidm:load id="load_124_69" name="Load_124" loadType="UNDEFINED" p0="50.565909055395984" q0="0.0" bus="bus_124" connectableBus="bus_124"/>
        </iidm:voltageLevel>
        <iidm:voltageLevel id="sub_125" nominalV="110.0" lowVoltageLimit="104.5" highVoltageLimit="115.5" topologyKind="BUS_BREAKER">
            <iidm:busBreakerTopology>
                <iidm:bus id="bus_125" name="Bus_125"/>
            </iidm:busBreakerTopology>
            <iidm:load id="load_125_70" name="Load_125" loadType="UNDEFINED" p0="62.2932584759167" q0="0.0" bus="bus_125" connectableBus="bus_125"/>
        </iidm:voltageLevel>
        <iidm:voltageLevel id="sub_126" nominalV="110.0" lowVoltageLimit="104.5" highVoltageLimit="115.5" topologyKind="BUS_BREAKER">
            <iidm:busBreakerTopology>
                <iidm:bus id="bus_126" name="Bus_126"/>
            </iidm:busBreakerTopology>
            <iidm:generator id="gen_126_25" name="Gen_126" energySource="OTHER" minP="-4999.0" maxP="4999.0" voltageRegulatorOn="true" targetP="1723.4753973777636" targetV="110.0" targetQ="0.0" bus="bus_126" connectableBus="bus_126">
                <iidm:minMaxReactiveLimits minQ="-435.3194566755114" maxQ="876.4673307330344"/>
            </iidm:generator>
        </iidm:voltageLevel>
        <iidm:voltageLevel id="sub_127" nominalV="110.0" lowVoltageLimit="104.5" highVoltageLimit="115.5" topologyKind="BUS_BREAKER">
            <iidm:busBreakerTopology>
                <iidm:bus id="bus_127" name="Bus_127"/>
            </iidm:busBreakerTopology>
        </iidm:voltageLevel>
        <iidm:voltageLevel id="sub_128" nominalV="110.0" lowVoltageLimit="104.5" highVoltageLimit="115.5" topologyKind="BUS_BREAKER">
            <iidm:busBreakerTopology>
                <iidm:bus id="bus_128" name="Bus_128"/>
            </iidm:busBreakerTopology>
            <iidm:load id="load_128_71" name="Load_128" loadType="UNDEFINED" p0="84.00540588028723" q0="0.0" bus="bus_128" connectableBus="bus_128"/>
        </iidm:voltageLevel>
        <iidm:voltageLevel id="sub_129" nominalV="110.0" lowVoltageLimit="104.5" highVoltageLimit="115.5" topologyKind="BUS_BREAKER">
            <iidm:busBreakerTopology>
                <iidm:bus id="bus_129" name="Bus_129"/>
            </iidm:busBreakerTopology>
            <iidm:generator id="gen_129_26" name="Gen_129" energySource="OTHER" minP="-4999.0" maxP="4999.0" voltageRegulatorOn="true" targetP="768.7928780640269" targetV="110.0" targetQ="0.0" bus="bus_129" connectableBus="bus_129">
                <iidm:minMaxReactiveLimits minQ="-61.13910136229602" maxQ="230.9073490178466"/>
            </iidm:generator>
        </iidm:voltageLevel>
        <iidm:voltageLevel id="sub_130" nominalV="110.0" lowVoltageLimit="104.5" highVoltageLimit="115.5" topologyKind="BUS_BREAKER">
            <iidm:busBreakerTopology>
                <iidm:bus id="bus_130" name="Bus_130"/>
            </iidm:busBreakerTopology>
            <iidm:generator id="gen_130_27" name="Gen_130" energySource="OTHER" minP="-4999.0" maxP="4999.0" voltageRegulatorOn="true" targetP="33.18756281763577" targetV="110.0" targetQ="0.0" bus="bus_130" connectableBus="bus_130">
                <iidm:minMaxReactiveLimits minQ="-2.5330255185103394" maxQ="47.12767196889067"/>
            </iidm:generator>
        </iidm:voltageLevel>
        <iidm:voltageLevel id="sub_131" nominalV="110.0" lowVoltageLimit="104.5" highVoltageLimit="115.5" topologyKind="BUS_BREAKER">
            <iidm:busBreakerTopology>
                <iidm:bus id="bus_131" name="Bus_131"/>
            </iidm:busBreakerTopology>
...